[General]
network=Network
sim-time-limit  = 100s

*.sender.numApps = 1
*.sender.app[*].typename = "UdpTraceBasedApp"
*.sender.app[0].destAddresses = "receiver"
*.sender.app[0].traceFile = "test.txt"
*.sender.app[0].localPort = 60000
*.sender.app[0].startTime = 100s
*.sender.app[0].stopTime = 1000s

*.sender.app[0].destPort = 1000
*.sender.app[0].messageLength = 1000B


*.receiver.numApps = 1
*.receiver.app[*].typename = "UdpSink"
*.receiver.app[*].localPort = 1000